code/data/casedata/case118.py
# Copyright (c) 1996-2015 PSERC. All rights reserved.
# Use of this source code is governed by a BSD-style
# license that can be found in the LICENSE file.

"""Power flow data for IEEE 118 bus test case.
"""

from numpy import array

def case118():
    """Power flow data for IEEE 118 bus test case.
    Please see L{caseformat} for details on the case file format.

    This data was converted from IEEE Common Data Format
    (ieee118cdf.txt) on 20-Sep-2004 by cdf2matp, rev. 1.11
    See end of file for warnings generated during conversion.

    Converted from IEEE CDF file from:
    U{http://www.ee.washington.edu/research/pstca/}

    With baseKV data take from the PSAP format file from the same site,
    added manually on 10-Mar-2006.

    08/25/93 UW ARCHIVE           100.0  1961 W IEEE 118 Bus Test Case

    @return: Power flow data for IEEE 118 bus test case.
    """
    ppc = {"version": '2'}

    ##-----  Power Flow Data  -----##
    ## system MVA base
    ppc["baseMVA"] = 100.0

    ## bus data
    # bus_i type Pd Qd Gs Bs area Vm Va baseKV zone Vmax Vmin
    ppc["bus"] = array([
        [1, 2, 51, 27, 0, 0, 1, 0.955, 10.67, 138, 1, 1.06, 0.94      ,0.01 ,   0.01 ],
        [2, 1, 20, 9, 0, 0, 1, 0.971, 11.22, 138, 1, 1.06, 0.94       ,0 ,      0.01 ],
        [3, 1, 39, 10, 0, 0, 1, 0.968, 11.56, 138, 1, 1.06, 0.94      ,0 ,      0.01 ],
        [4, 2, 39, 12, 0, 0, 1, 0.998, 15.28, 138, 1, 1.06, 0.94      ,0.01 ,   0.01 ],
        [5, 1, 0, 0, 0, -40, 1, 1.002, 15.73, 138, 1, 1.06, 0.94      ,0 ,      0 ],
        [6, 2, 52, 22, 0, 0, 1, 0.99, 13, 138, 1, 1.06, 0.94          ,0.01 ,   0.01 ],
        [7, 1, 19, 2, 0, 0, 1, 0.989, 12.56, 138, 1, 1.06, 0.94       ,0 ,      0.01 ],
        [8, 2, 28, 0, 0, 0, 1, 1.015, 20.77, 345, 1, 1.06, 0.94       ,0.01 ,   0.01 ],
        [9, 1, 0, 0, 0, 0, 1, 1.043, 28.02, 345, 1, 1.06, 0.94        ,0 ,      0 ],
        [10, 2, 0, 0, 0, 0, 1, 1.05, 35.61, 345, 1, 1.06, 0.94        ,0.01 ,   0.01 ],
        [11, 1, 70, 23, 0, 0, 1, 0.985, 12.72, 138, 1, 1.06, 0.94     ,0 ,      0.01 ],
        [12, 2, 47, 10, 0, 0, 1, 0.99, 12.2, 138, 1, 1.06, 0.94       ,0.01 ,   0.01 ],
        [13, 1, 34, 16, 0, 0, 1, 0.968, 11.35, 138, 1, 1.06, 0.94     ,0 ,      0.01 ],
        [14, 1, 14, 1, 0, 0, 1, 0.984, 11.5, 138, 1, 1.06, 0.94       ,0 ,      0.01 ],
        [15, 2, 90, 30, 0, 0, 1, 0.97, 11.23, 138, 1, 1.06, 0.94      ,0.01 ,   0.01 ],
        [16, 1, 25, 10, 0, 0, 1, 0.984, 11.91, 138, 1, 1.06, 0.94     ,0 ,      0.01 ],
        [17, 1, 11, 3, 0, 0, 1, 0.995, 13.74, 138, 1, 1.06, 0.94      ,0 ,      0.01 ],
        [18, 2, 60, 34, 0, 0, 1, 0.973, 11.53, 138, 1, 1.06, 0.94     ,0.01 ,   0.01 ],
        [19, 2, 45, 25, 0, 0, 1, 0.963, 11.05, 138, 1, 1.06, 0.94     ,0.01 ,   0.01 ],
        [20, 1, 18, 3, 0, 0, 1, 0.958, 11.93, 138, 1, 1.06, 0.94      ,0 ,      0.01 ],
        [21, 1, 14, 8, 0, 0, 1, 0.959, 13.52, 138, 1, 1.06, 0.94      ,0 ,      0.01 ],
        [22, 1, 10, 5, 0, 0, 1, 0.97, 16.08, 138, 1, 1.06, 0.94       ,0 ,      0.01 ],
        [23, 1, 7, 3, 0, 0, 1, 1, 21, 138, 1, 1.06, 0.94              ,0 ,      0.01 ],
        [24, 2, 13, 0, 0, 0, 1, 0.992, 20.89, 138, 1, 1.06, 0.94      ,0.01 ,   0.01 ],
        [25, 2, 0, 0, 0, 0, 1, 1.05, 27.93, 138, 1, 1.06, 0.94        ,0.01 ,   0.01 ],
        [26, 2, 0, 0, 0, 0, 1, 1.015, 29.71, 345, 1, 1.06, 0.94       ,0.01 ,   0.01 ],
        [27, 2, 71, 13, 0, 0, 1, 0.968, 15.35, 138, 1, 1.06, 0.94     ,0.01 ,   0.01 ],
        [28, 1, 17, 7, 0, 0, 1, 0.962, 13.62, 138, 1, 1.06, 0.94      ,0 ,      0.01 ],
        [29, 1, 24, 4, 0, 0, 1, 0.963, 12.63, 138, 1, 1.06, 0.94      ,0 ,      0.01 ],
        [30, 1, 0, 0, 0, 0, 1, 0.968, 18.79, 345, 1, 1.06, 0.94       ,0 ,      0 ],
        [31, 2, 43, 27, 0, 0, 1, 0.967, 12.75, 138, 1, 1.06, 0.94     ,0.01 ,   0.01 ],
        [32, 2, 59, 23, 0, 0, 1, 0.964, 14.8, 138, 1, 1.06, 0.94      ,0.01 ,   0.01 ],
        [33, 1, 23, 9, 0, 0, 1, 0.972, 10.63, 138, 1, 1.06, 0.94      ,0 ,      0.01 ],
        [34, 2, 59, 26, 0, 14, 1, 0.986, 11.3, 138, 1, 1.06, 0.94     ,0.01 ,   0.01 ],
        [35, 1, 33, 9, 0, 0, 1, 0.981, 10.87, 138, 1, 1.06, 0.94      ,0 ,      0.01 ],
        [36, 2, 31, 17, 0, 0, 1, 0.98, 10.87, 138, 1, 1.06, 0.94      ,0.01 ,   0.01 ],
        [37, 1, 0, 0, 0, -25, 1, 0.992, 11.77, 138, 1, 1.06, 0.94     ,0 ,      0 ],
        [38, 1, 0, 0, 0, 0, 1, 0.962, 16.91, 345, 1, 1.06, 0.94       ,0 ,      0 ],
        [39, 1, 27, 11, 0, 0, 1, 0.97, 8.41, 138, 1, 1.06, 0.94       ,0 ,      0.01 ],
        [40, 2, 66, 23, 0, 0, 1, 0.97, 7.35, 138, 1, 1.06, 0.94       ,0.01 ,   0.01 ],
        [41, 1, 37, 10, 0, 0, 1, 0.967, 6.92, 138, 1, 1.06, 0.94      ,0 ,      0.01 ],
        [42, 2, 96, 23, 0, 0, 1, 0.985, 8.53, 138, 1, 1.06, 0.94      ,0.01 ,   0.01 ],
        [43, 1, 18, 7, 0, 0, 1, 0.978, 11.28, 138, 1, 1.06, 0.94      ,0 ,      0.01 ],
        [44, 1, 16, 8, 0, 10, 1, 0.985, 13.82, 138, 1, 1.06, 0.94     ,0 ,      0.01 ],
        [45, 1, 53, 22, 0, 10, 1, 0.987, 15.67, 138, 1, 1.06, 0.94    ,0 ,      0.01 ],
        [46, 2, 28, 10, 0, 10, 1, 1.005, 18.49, 138, 1, 1.06, 0.94    ,0.01 ,   0.01 ],
        [47, 1, 34, 0, 0, 0, 1, 1.017, 20.73, 138, 1, 1.06, 0.94      ,0 ,      0.01 ],
        [48, 1, 20, 11, 0, 15, 1, 1.021, 19.93, 138, 1, 1.06, 0.94    ,0 ,      0.01 ],
        [49, 2, 87, 30, 0, 0, 1, 1.025, 20.94, 138, 1, 1.06, 0.94     ,0.01 ,   0.01 ],
        [50, 1, 17, 4, 0, 0, 1, 1.001, 18.9, 138, 1, 1.06, 0.94       ,0 ,      0.01 ],
        [51, 1, 17, 8, 0, 0, 1, 0.967, 16.28, 138, 1, 1.06, 0.94      ,0 ,      0.01 ],
        [52, 1, 18, 5, 0, 0, 1, 0.957, 15.32, 138, 1, 1.06, 0.94      ,0 ,      0.01 ],
        [53, 1, 23, 11, 0, 0, 1, 0.946, 14.35, 138, 1, 1.06, 0.94     ,0 ,      0.01 ],
        [54, 2, 113, 32, 0, 0, 1, 0.955, 15.26, 138, 1, 1.06, 0.94    ,0.01 ,   0.01 ],
        [55, 2, 63, 22, 0, 0, 1, 0.952, 14.97, 138, 1, 1.06, 0.94     ,0.01 ,   0.01 ],
        [56, 2, 84, 18, 0, 0, 1, 0.954, 15.16, 138, 1, 1.06, 0.94     ,0.01 ,   0.01 ],
        [57, 1, 12, 3, 0, 0, 1, 0.971, 16.36, 138, 1, 1.06, 0.94      ,0 ,      0.01 ],
        [58, 1, 12, 3, 0, 0, 1, 0.959, 15.51, 138, 1, 1.06, 0.94      ,0 ,      0.01 ],
        [59, 2, 277, 113, 0, 0, 1, 0.985, 19.37, 138, 1, 1.06, 0.94   ,0.01 ,   0.01 ],
        [60, 1, 78, 3, 0, 0, 1, 0.993, 23.15, 138, 1, 1.06, 0.94      ,0 ,      0.01 ],
        [61, 2, 0, 0, 0, 0, 1, 0.995, 24.04, 138, 1, 1.06, 0.94       ,0.01 ,   0.01 ],
        [62, 2, 77, 14, 0, 0, 1, 0.998, 23.43, 138, 1, 1.06, 0.94     ,0.01 ,   0.01 ],
        [63, 1, 0, 0, 0, 0, 1, 0.969, 22.75, 345, 1, 1.06, 0.94       ,0 ,      0 ],
        [64, 1, 0, 0, 0, 0, 1, 0.984, 24.52, 345, 1, 1.06, 0.94       ,0 ,      0 ],
        [65, 2, 0, 0, 0, 0, 1, 1.005, 27.65, 345, 1, 1.06, 0.94       ,0.01 ,   0.01 ],
        [66, 2, 39, 18, 0, 0, 1, 1.05, 27.48, 138, 1, 1.06, 0.94      ,0.01 ,   0.01 ],
        [67, 1, 28, 7, 0, 0, 1, 1.02, 24.84, 138, 1, 1.06, 0.94       ,0 ,      0.01 ],
        [68, 1, 0, 0, 0, 0, 1, 1.003, 27.55, 345, 1, 1.06, 0.94       ,0 ,      0 ],
        [69, 3, 0, 0, 0, 0, 1, 1.035, 30, 138, 1, 1.06, 0.94          ,0.01 ,   0.01 ],
        [70, 2, 66, 20, 0, 0, 1, 0.984, 22.58, 138, 1, 1.06, 0.94     ,0.01 ,   0.01 ],
        [71, 1, 0, 0, 0, 0, 1, 0.987, 22.15, 138, 1, 1.06, 0.94       ,0 ,      0 ],
        [72, 2, 12, 0, 0, 0, 1, 0.98, 20.98, 138, 1, 1.06, 0.94       ,0.01 ,   0.01 ],
        [73, 2, 6, 0, 0, 0, 1, 0.991, 21.94, 138, 1, 1.06, 0.94       ,0.01 ,   0.01 ],
        [74, 2, 68, 27, 0, 12, 1, 0.958, 21.64, 138, 1, 1.06, 0.94    ,0.01 ,   0.01 ],
        [75, 1, 47, 11, 0, 0, 1, 0.967, 22.91, 138, 1, 1.06, 0.94     ,0 ,      0.01 ],
        [76, 2, 68, 36, 0, 0, 1, 0.943, 21.77, 138, 1, 1.06, 0.94     ,0.01 ,   0.01 ],
        [77, 2, 61, 28, 0, 0, 1, 1.006, 26.72, 138, 1, 1.06, 0.94     ,0.01 ,   0.01 ],
        [78, 1, 71, 26, 0, 0, 1, 1.003, 26.42, 138, 1, 1.06, 0.94     ,0 ,      0.01 ],
        [79, 1, 39, 32, 0, 20, 1, 1.009, 26.72, 138, 1, 1.06, 0.94    ,0 ,      0.01 ],
        [80, 2, 130, 26, 0, 0, 1, 1.04, 28.96, 138, 1, 1.06, 0.94     ,0.01 ,   0.01 ],
        [81, 1, 0, 0, 0, 0, 1, 0.997, 28.1, 345, 1, 1.06, 0.94        ,0 ,      0 ],
        [82, 1, 54, 27, 0, 20, 1, 0.989, 27.24, 138, 1, 1.06, 0.94    ,0 ,      0.01 ],
        [83, 1, 20, 10, 0, 10, 1, 0.985, 28.42, 138, 1, 1.06, 0.94    ,0 ,      0.01 ],
        [84, 1, 11, 7, 0, 0, 1, 0.98, 30.95, 138, 1, 1.06, 0.94       ,0 ,      0.01 ],
        [85, 2, 24, 15, 0, 0, 1, 0.985, 32.51, 138, 1, 1.06, 0.94     ,0.01 ,   0.01 ],
        [86, 1, 21, 10, 0, 0, 1, 0.987, 31.14, 138, 1, 1.06, 0.94     ,0 ,      0.01 ],
        [87, 2, 0, 0, 0, 0, 1, 1.015, 31.4, 161, 1, 1.06, 0.94        ,0.01 ,   0.01 ],
        [88, 1, 48, 10, 0, 0, 1, 0.987, 35.64, 138, 1, 1.06, 0.94     ,0 ,      0.01 ],
        [89, 2, 0, 0, 0, 0, 1, 1.005, 39.69, 138, 1, 1.06, 0.94       ,0.01 ,   0.01 ],
        [90, 2, 163, 42, 0, 0, 1, 0.985, 33.29, 138, 1, 1.06, 0.94    ,0.01 ,   0.01 ],
        [91, 2, 10, 0, 0, 0, 1, 0.98, 33.31, 138, 1, 1.06, 0.94       ,0.01 ,   0.01 ],
        [92, 2, 65, 10, 0, 0, 1, 0.993, 33.8, 138, 1, 1.06, 0.94      ,0.01 ,   0.01 ],
        [93, 1, 12, 7, 0, 0, 1, 0.987, 30.79, 138, 1, 1.06, 0.94      ,0 ,      0.01 ],
        [94, 1, 30, 16, 0, 0, 1, 0.991, 28.64, 138, 1, 1.06, 0.94     ,0 ,      0.01 ],
        [95, 1, 42, 31, 0, 0, 1, 0.981, 27.67, 138, 1, 1.06, 0.94     ,0 ,      0.01 ],
        [96, 1, 38, 15, 0, 0, 1, 0.993, 27.51, 138, 1, 1.06, 0.94     ,0 ,      0.01 ],
        [97, 1, 15, 9, 0, 0, 1, 1.011, 27.88, 138, 1, 1.06, 0.94      ,0 ,      0.01 ],
        [98, 1, 34, 8, 0, 0, 1, 1.024, 27.4, 138, 1, 1.06, 0.94       ,0 ,      0.01 ],
        [99, 2, 42, 0, 0, 0, 1, 1.01, 27.04, 138, 1, 1.06, 0.94       ,0.01 ,   0.01 ],
        [100, 2, 37, 18, 0, 0, 1, 1.017, 28.03, 138, 1, 1.06, 0.94    ,0.01 ,   0.01 ],
        [101, 1, 22, 15, 0, 0, 1, 0.993, 29.61, 138, 1, 1.06, 0.94    ,0 ,      0.01 ],
        [102, 1, 5, 3, 0, 0, 1, 0.991, 32.3, 138, 1, 1.06, 0.94       ,0 ,      0.01 ],
        [103, 2, 23, 16, 0, 0, 1, 1.001, 24.44, 138, 1, 1.06, 0.94    ,0.01 ,   0.01 ],
        [104, 2, 38, 25, 0, 0, 1, 0.971, 21.69, 138, 1, 1.06, 0.94    ,0.01 ,   0.01 ],
        [105, 2, 31, 26, 0, 20, 1, 0.965, 20.57, 138, 1, 1.06, 0.94   ,0.01 ,   0.01 ],
        [106, 1, 43, 16, 0, 0, 1, 0.962, 20.32, 138, 1, 1.06, 0.94    ,0 ,      0.01 ],
        [107, 2, 50, 12, 0, 6, 1, 0.952, 17.53, 138, 1, 1.06, 0.94    ,0.01 ,   0.01 ],
        [108, 1, 2, 1, 0, 0, 1, 0.967, 19.38, 138, 1, 1.06, 0.94      ,0 ,      0.01 ],
        [109, 1, 8, 3, 0, 0, 1, 0.967, 18.93, 138, 1, 1.06, 0.94      ,0 ,      0.01 ],
        [110, 2, 39, 30, 0, 6, 1, 0.973, 18.09, 138, 1, 1.06, 0.94    ,0.01 ,   0.01 ],
        [111, 2, 0, 0, 0, 0, 1, 0.98, 19.74, 138, 1, 1.06, 0.94       ,0.01 ,   0.01 ],
        [112, 2, 68, 13, 0, 0, 1, 0.975, 14.99, 138, 1, 1.06, 0.94    ,0.01 ,   0.01 ],
        [113, 2, 6, 0, 0, 0, 1, 0.993, 13.74, 138, 1, 1.06, 0.94      ,0.01 ,   0.01 ],
        [114, 1, 8, 3, 0, 0, 1, 0.96, 14.46, 138, 1, 1.06, 0.94       ,0 ,      0.01 ],
        [115, 1, 22, 7, 0, 0, 1, 0.96, 14.46, 138, 1, 1.06, 0.94      ,0 ,      0.01 ],
        [116, 2, 184, 0, 0, 0, 1, 1.005, 27.12, 138, 1, 1.06, 0.94    ,0.01 ,   0.01 ],
        [117, 1, 20, 8, 0, 0, 1, 0.974, 10.67, 138, 1, 1.06, 0.94     ,0 ,      0.01 ],
        [118, 1, 33, 15, 0, 0, 1, 0.949, 21.92, 138, 1, 1.06, 0.94    ,0 ,      0.01 ]
    ])

    ## generator data
    # bus, Pg, Qg, Qmax, Qmin, Vg, mBase, status, Pmax, Pmin, Pc1, Pc2,
    # Qc1min, Qc1max, Qc2min, Qc2max, ramp_agc, ramp_10, ramp_30, ramp_q, apf
    ppc["gen"] = array([
        [1, 0, 0, 15, -5, 0.955, 100, 1, 100, 0, 0, 0, 0, 0, 0, 0, 0, 0, 0, 0, 0],
        [4, 0, 0, 300, -300, 0.998, 100, 1, 100, 0, 0, 0, 0, 0, 0, 0, 0, 0, 0, 0, 0],
        [6, 0, 0, 50, -13, 0.99, 100, 1, 100, 0, 0, 0, 0, 0, 0, 0, 0, 0, 0, 0, 0],
        [8, 0, 0, 300, -300, 1.015, 100, 1, 100, 0, 0, 0, 0, 0, 0, 0, 0, 0, 0, 0, 0],
        [10, 450, 0, 200, -147, 1.05, 100, 1, 550, 0, 0, 0, 0, 0, 0, 0, 0, 0, 0, 0, 0],
        [12, 85, 0, 120, -35, 0.99, 100, 1, 185, 0, 0, 0, 0, 0, 0, 0, 0, 0, 0, 0, 0],
        [15, 0, 0, 30, -10, 0.97, 100, 1, 100, 0, 0, 0, 0, 0, 0, 0, 0, 0, 0, 0, 0],
        [18, 0, 0, 50, -16, 0.973, 100, 1, 100, 0, 0, 0, 0, 0, 0, 0, 0, 0, 0, 0, 0],
        [19, 0, 0, 24, -8, 0.962, 100, 1, 100, 0, 0, 0, 0, 0, 0, 0, 0, 0, 0, 0, 0],
        [24, 0, 0, 300, -300, 0.992, 100, 1, 100, 0, 0, 0, 0, 0, 0, 0, 0, 0, 0, 0, 0],
        [25, 220, 0, 140, -47, 1.05, 100, 1, 320, 0, 0, 0, 0, 0, 0, 0, 0, 0, 0, 0, 0],
        [26, 314, 0, 1000, -1000, 1.015, 100, 1, 414, 0, 0, 0, 0, 0, 0, 0, 0, 0, 0, 0, 0],
        [27, 0, 0, 300, -300, 0.968, 100, 1, 100, 0, 0, 0, 0, 0, 0, 0, 0, 0, 0, 0, 0],
        [31, 7, 0, 300, -300, 0.967, 100, 1, 107, 0, 0, 0, 0, 0, 0, 0, 0, 0, 0, 0, 0],
        [32, 0, 0, 42, -14, 0.963, 100, 1, 100, 0, 0, 0, 0, 0, 0, 0, 0, 0, 0, 0, 0],
        [34, 0, 0, 24, -8, 0.984, 100, 1, 100, 0, 0, 0, 0, 0, 0, 0, 0, 0, 0, 0, 0],
        [36, 0, 0, 24, -8, 0.98, 100, 1, 100, 0, 0, 0, 0, 0, 0, 0, 0, 0, 0, 0, 0],
        [40, 0, 0, 300, -300, 0.97, 100, 1, 100, 0, 0, 0, 0, 0, 0, 0, 0, 0, 0, 0, 0],
        [42, 0, 0, 300, -300, 0.985, 100, 1, 100, 0, 0, 0, 0, 0, 0, 0, 0, 0, 0, 0, 0],
        [46, 19, 0, 100, -100, 1.005, 100, 1, 119, 0, 0, 0, 0, 0, 0, 0, 0, 0, 0, 0, 0],
        [49, 204, 0, 210, -85, 1.025, 100, 1, 304, 0, 0, 0, 0, 0, 0, 0, 0, 0, 0, 0, 0],
        [54, 48, 0, 300, -300, 0.955, 100, 1, 148, 0, 0, 0, 0, 0, 0, 0, 0, 0, 0, 0, 0],
        [55, 0, 0, 23, -8, 0.952, 100, 1, 100, 0, 0, 0, 0, 0, 0, 0, 0, 0, 0, 0, 0],
        [56, 0, 0, 15, -8, 0.954, 100, 1, 100, 0, 0, 0, 0, 0, 0, 0, 0, 0, 0, 0, 0],
        [59, 155, 0, 180, -60, 0.985, 100, 1, 255, 0, 0, 0, 0, 0, 0, 0, 0, 0, 0, 0, 0],
        [61, 160, 0, 300, -100, 0.995, 100, 1, 260, 0, 0, 0, 0, 0, 0, 0, 0, 0, 0, 0, 0],
        [62, 0, 0, 20, -20, 0.998, 100, 1, 100, 0, 0, 0, 0, 0, 0, 0, 0, 0, 0, 0, 0],
        [65, 391, 0, 200, -67, 1.005, 100, 1, 491, 0, 0, 0, 0, 0, 0, 0, 0, 0, 0, 0, 0],
        [66, 392, 0, 200, -67, 1.05, 100, 1, 492, 0, 0, 0, 0, 0, 0, 0, 0, 0, 0, 0, 0],
        [69, 516.4, 0, 300, -300, 1.035, 100, 1, 805.2, 0, 0, 0, 0, 0, 0, 0, 0, 0, 0, 0, 0],
        [70, 0, 0, 32, -10, 0.984, 100, 1, 100, 0, 0, 0, 0, 0, 0, 0, 0, 0, 0, 0, 0],
        [72, 0, 0, 100, -100, 0.98, 100, 1, 100, 0, 0, 0, 0, 0, 0, 0, 0, 0, 0, 0, 0],
        [73, 0, 0, 100, -100, 0.991, 100, 1, 100, 0, 0, 0, 0, 0, 0, 0, 0, 0, 0, 0, 0],
        [74, 0, 0, 9, -6, 0.958, 100, 1, 100, 0, 0, 0, 0, 0, 0, 0, 0, 0, 0, 0, 0],
        [76, 0, 0, 23, -8, 0.943, 100, 1, 100, 0, 0, 0, 0, 0, 0, 0, 0, 0, 0, 0, 0],
        [77, 0, 0, 70, -20, 1.006, 100, 1, 100, 0, 0, 0, 0, 0, 0, 0, 0, 0, 0, 0, 0],
        [80, 477, 0, 280, -165, 1.04, 100, 1, 577, 0, 0, 0, 0, 0, 0, 0, 0, 0, 0, 0, 0],
        [85, 0, 0, 23, -8, 0.985, 100, 1, 100, 0, 0, 0, 0, 0, 0, 0, 0, 0, 0, 0, 0],
        [87, 4, 0, 1000, -100, 1.015, 100, 1, 104, 0, 0, 0, 0, 0, 0, 0, 0, 0, 0, 0, 0],
        [89, 607, 0, 300, -210, 1.005, 100, 1, 707, 0, 0, 0, 0, 0, 0, 0, 0, 0, 0, 0, 0],
        [90, 0, 0, 300, -300, 0.985, 100, 1, 100, 0, 0, 0, 0, 0, 0, 0, 0, 0, 0, 0, 0],
        [91, 0, 0, 100, -100, 0.98, 100, 1, 100, 0, 0, 0, 0, 0, 0, 0, 0, 0, 0, 0, 0],
        [92, 0, 0, 9, -3, 0.99, 100, 1, 100, 0, 0, 0, 0, 0, 0, 0, 0, 0, 0, 0, 0],
        [99, 0, 0, 100, -100, 1.01, 100, 1, 100, 0, 0, 0, 0, 0, 0, 0, 0, 0, 0, 0, 0],
        [100, 252, 0, 155, -50, 1.017, 100, 1, 352, 0, 0, 0, 0, 0, 0, 0, 0, 0, 0, 0, 0],
        [103, 40, 0, 40, -15, 1.01, 100, 1, 140, 0, 0, 0, 0, 0, 0, 0, 0, 0, 0, 0, 0],
        [104, 0, 0, 23, -8, 0.971, 100, 1, 100, 0, 0, 0, 0, 0, 0, 0, 0, 0, 0, 0, 0],
        [105, 0, 0, 23, -8, 0.965, 100, 1, 100, 0, 0, 0, 0, 0, 0, 0, 0, 0, 0, 0, 0],
        [107, 0, 0, 200, -200, 0.952, 100, 1, 100, 0, 0, 0, 0, 0, 0, 0, 0, 0, 0, 0, 0],
        [110, 0, 0, 23, -8, 0.973, 100, 1, 100, 0, 0, 0, 0, 0, 0, 0, 0, 0, 0, 0, 0],
        [111, 36, 0, 1000, -100, 0.98, 100, 1, 136, 0, 0, 0, 0, 0, 0, 0, 0, 0, 0, 0, 0],
        [112, 0, 0, 1000, -100, 0.975, 100, 1, 100, 0, 0, 0, 0, 0, 0, 0, 0, 0, 0, 0, 0],
        [113, 0, 0, 200, -100, 0.993, 100, 1, 100, 0, 0, 0, 0, 0, 0, 0, 0, 0, 0, 0, 0],
        [116, 0, 0, 1000, -1000, 1.005, 100, 1, 100, 0, 0, 0, 0, 0, 0, 0, 0, 0, 0, 0, 0]
    ])

    ## branch data
    # fbus, tbus, r, x, b, rateA, rateB, rateC, ratio, angle, status, angmin, angmax
    ppc["branch"] = array([
        [1, 2, 0,   0.0999, 0.0254, 9900, 0, 0, 0, 0, 1, -360, 360],
        [1, 3, 0,   0.0424, 0.01082, 9900, 0, 0, 0, 0, 1, -360, 360],
        [4, 5, 0,    0.00798, 0.0021, 9900, 0, 0, 0, 0, 1, -360, 360],
        [3, 5, 0,   0.108, 0.0284, 9900, 0, 0, 0, 0, 1, -360, 360],
        [5, 6, 0,   0.054, 0.01426, 9900, 0, 0, 0, 0, 1, -360, 360],
        [6, 7, 0,    0.0208, 0.0055, 9900, 0, 0, 0, 0, 1, -360, 360],
        [8, 9, 0,    0.0305, 1.162, 9900, 0, 0, 0, 0, 1, -360, 360],
        [8, 5, 0,0.0267, 0, 9900, 0, 0, 0.985, 0, 1, -360, 360],
        [9, 10,       0,     0.0322, 1.23, 9900, 0, 0, 0, 0, 1, -360, 360],
        [4, 11,       0,    0.0688, 0.01748, 9900, 0, 0, 0, 0, 1, -360, 360],
        [5, 11,       0,    0.0682, 0.01738, 9900, 0, 0, 0, 0, 1, -360, 360],
        [11, 12,      0,      0.0196, 0.00502, 9900, 0, 0, 0, 0, 1, -360, 360],
        [2, 12,       0,    0.0616, 0.01572, 9900, 0, 0, 0, 0, 1, -360, 360],
        [3, 12,       0,    0.16, 0.0406, 9900, 0, 0, 0, 0, 1, -360, 360],
        [7, 12,       0,     0.034, 0.00874, 9900, 0, 0, 0, 0, 1, -360, 360],
        [11, 13,      0,      0.0731, 0.01876, 9900, 0, 0, 0, 0, 1, -360, 360],
        [12, 14,      0,     0.0707, 0.01816, 9900, 0, 0, 0, 0, 1, -360, 360],
        [13, 15,      0,     0.2444, 0.06268, 9900, 0, 0, 0, 0, 1, -360, 360],
        [14, 15,      0,     0.195, 0.0502, 9900, 0, 0, 0, 0, 1, -360, 360],
        [12, 16,      0,     0.0834, 0.0214, 9900, 0, 0, 0, 0, 1, -360, 360],
        [15, 17,      0,     0.0437, 0.0444, 9900, 0, 0, 0, 0, 1, -360, 360],
        [16, 17,      0,     0.1801, 0.0466, 9900, 0, 0, 0, 0, 1, -360, 360],
        [17, 18,      0,     0.0505, 0.01298, 9900, 0, 0, 0, 0, 1, -360, 360],
        [18, 19,      0,      0.0493, 0.01142, 9900, 0, 0, 0, 0, 1, -360, 360],
        [19, 20,      0,     0.117, 0.0298, 9900, 0, 0, 0, 0, 1, -360, 360],
        [15, 19,      0,    0.0394, 0.0101, 9900, 0, 0, 0, 0, 1, -360, 360],
        [20, 21,      0,     0.0849, 0.0216, 9900, 0, 0, 0, 0, 1, -360, 360],
        [21, 22,      0,     0.097, 0.0246, 9900, 0, 0, 0, 0, 1, -360, 360],
        [22, 23,      0,     0.159, 0.0404, 9900, 0, 0, 0, 0, 1, -360, 360],
        [23, 24,      0,     0.0492, 0.0498, 9900, 0, 0, 0, 0, 1, -360, 360],
        [23, 25,      0,     0.08, 0.0864, 9900, 0, 0, 0, 0, 1, -360, 360],
        [26, 25,      0,0.0382, 0, 9900, 0, 0, 0.96, 0, 1, -360, 360],
        [25, 27,      0,     0.163, 0.1764, 9900, 0, 0, 0, 0, 1, -360, 360],
        [27, 28,      0,      0.0855, 0.0216, 9900, 0, 0, 0, 0, 1, -360, 360],
        [28, 29,      0,     0.0943, 0.0238, 9900, 0, 0, 0, 0, 1, -360, 360],
        [30, 17,      0,0.0388, 0, 9900, 0, 0, 0.96, 0, 1, -360, 360],
        [8, 30,       0,     0.0504, 0.514, 9900, 0, 0, 0, 0, 1, -360, 360],
        [26, 30,      0,      0.086, 0.908, 9900, 0, 0, 0, 0, 1, -360, 360],
        [17, 31,      0,     0.1563, 0.0399, 9900, 0, 0, 0, 0, 1, -360, 360],
        [29, 31,      0,     0.0331, 0.0083, 9900, 0, 0, 0, 0, 1, -360, 360],
        [23, 32,      0,     0.1153, 0.1173, 9900, 0, 0, 0, 0, 1, -360, 360],
        [31, 32,      0,     0.0985, 0.0251, 9900, 0, 0, 0, 0, 1, -360, 360],
        [27, 32,      0,     0.0755, 0.01926, 9900, 0, 0, 0, 0, 1, -360, 360],
        [15, 33,      0,    0.1244, 0.03194, 9900, 0, 0, 0, 0, 1, -360, 360],
        [19, 34,      0,     0.247, 0.0632, 9900, 0, 0, 0, 0, 1, -360, 360],
        [35, 36,      0,      0.0102, 0.00268, 9900, 0, 0, 0, 0, 1, -360, 360],
        [35, 37,      0,    0.0497, 0.01318, 9900, 0, 0, 0, 0, 1, -360, 360],
        [33, 37,      0,     0.142, 0.0366, 9900, 0, 0, 0, 0, 1, -360, 360],
        [34, 36,      0,      0.0268, 0.00568, 9900, 0, 0, 0, 0, 1, -360, 360],
        [34, 37,      0,      0.0094, 0.00984, 9900, 0, 0, 0, 0, 1, -360, 360],
        [38, 37,      0,0.0375, 0, 9900, 0, 0, 0.935, 0, 1, -360, 360],
        [37, 39,      0,     0.106, 0.027, 9900, 0, 0, 0, 0, 1, -360, 360],
        [37, 40,      0,     0.168, 0.042, 9900, 0, 0, 0, 0, 1, -360, 360],
        [30, 38,      0,      0.054, 0.422, 9900, 0, 0, 0, 0, 1, -360, 360],
        [39, 40,      0,     0.0605, 0.01552, 9900, 0, 0, 0, 0, 1, -360, 360],
        [40, 41,      0,     0.0487, 0.01222, 9900, 0, 0, 0, 0, 1, -360, 360],
        [40, 42,      0,     0.183, 0.0466, 9900, 0, 0, 0, 0, 1, -360, 360],
        [41, 42,      0,    0.135, 0.0344, 9900, 0, 0, 0, 0, 1, -360, 360],
        [43, 44,      0,     0.2454, 0.06068, 9900, 0, 0, 0, 0, 1, -360, 360],
        [34, 43,      0,     0.1681, 0.04226, 9900, 0, 0, 0, 0, 1, -360, 360],
        [44, 45,      0,     0.0901, 0.0224, 9900, 0, 0, 0, 0, 1, -360, 360],
        [45, 46,      0,   0.1356, 0.0332, 9900, 0, 0, 0, 0, 1, -360, 360],
        [46, 47,      0,    0.127, 0.0316, 9900, 0, 0, 0, 0, 1, -360, 360],
        [46, 48,      0,     0.189, 0.0472, 9900, 0, 0, 0, 0, 1, -360, 360],
        [47, 49,      0,     0.0625, 0.01604, 9900, 0, 0, 0, 0, 1, -360, 360],
        [42, 49,      0,     0.323, 0.086, 9900, 0, 0, 0, 0, 1, -360, 360],
        [42, 49,      0,     0.323, 0.086, 9900, 0, 0, 0, 0, 1, -360, 360],
        [45, 49,      0,     0.186, 0.0444, 9900, 0, 0, 0, 0, 1, -360, 360],
        [48, 49,      0,     0.0505, 0.01258, 9900, 0, 0, 0, 0, 1, -360, 360],
        [49, 50,      0,     0.0752, 0.01874, 9900, 0, 0, 0, 0, 1, -360, 360],
        [49, 51,      0,     0.137, 0.0342, 9900, 0, 0, 0, 0, 1, -360, 360],
        [51, 52,      0,     0.0588, 0.01396, 9900, 0, 0, 0, 0, 1, -360, 360],
        [52, 53,      0,     0.1635, 0.04058, 9900, 0, 0, 0, 0, 1, -360, 360],
        [53, 54,      0,     0.122, 0.031, 9900, 0, 0, 0, 0, 1, -360, 360],
        [49, 54,      0,    0.289, 0.0738, 9900, 0, 0, 0, 0, 1, -360, 360],
        [49, 54,      0,     0.291, 0.073, 9900, 0, 0, 0, 0, 1, -360, 360],
        [54, 55,      0,     0.0707, 0.0202, 9900, 0, 0, 0, 0, 1, -360, 360],
        [54, 56,      0,      0.00955, 0.00732, 9900, 0, 0, 0, 0, 1, -360, 360],
        [55, 56,      0,      0.0151, 0.00374, 9900, 0, 0, 0, 0, 1, -360, 360],
        [56, 57,      0,     0.0966, 0.0242, 9900, 0, 0, 0, 0, 1, -360, 360],
        [50, 57,      0,     0.134, 0.0332, 9900, 0, 0, 0, 0, 1, -360, 360],
        [56, 58,      0,     0.0966, 0.0242, 9900, 0, 0, 0, 0, 1, -360, 360],
        [51, 58,      0,     0.0719, 0.01788, 9900, 0, 0, 0, 0, 1, -360, 360],
        [54, 59,      0,     0.2293, 0.0598, 9900, 0, 0, 0, 0, 1, -360, 360],
        [56, 59,      0,     0.251, 0.0569, 9900, 0, 0, 0, 0, 1, -360, 360],
        [56, 59,      0,     0.239, 0.0536, 9900, 0, 0, 0, 0, 1, -360, 360],
        [55, 59,      0,      0.2158, 0.05646, 9900, 0, 0, 0, 0, 1, -360, 360],
        [59, 60,      0,     0.145, 0.0376, 9900, 0, 0, 0, 0, 1, -360, 360],
        [59, 61,      0,     0.15, 0.0388, 9900, 0, 0, 0, 0, 1, -360, 360],
        [60, 61,      0,      0.0135, 0.01456, 9900, 0, 0, 0, 0, 1, -360, 360],
        [60, 62,      0,     0.0561, 0.01468, 9900, 0, 0, 0, 0, 1, -360, 360],
        [61, 62,      0,      0.0376, 0.0098, 9900, 0, 0, 0, 0, 1, -360, 360],
        [63, 59,      0,0.0386, 0, 9900, 0, 0, 0.96, 0, 1, -360, 360],
        [63, 64,      0,      0.02, 0.216, 9900, 0, 0, 0, 0, 1, -360, 360],
        [64, 61,      0,0.0268, 0, 9900, 0, 0, 0.985, 0, 1, -360, 360],
        [38, 65,      0,      0.0986, 1.046, 9900, 0, 0, 0, 0, 1, -360, 360],
        [64, 65,      0,      0.0302, 0.38, 9900, 0, 0, 0, 0, 1, -360, 360],
        [49, 66,      0,    0.0919, 0.0248, 9900, 0, 0, 0, 0, 1, -360, 360],
        [49, 66,      0,    0.0919, 0.0248, 9900, 0, 0, 0, 0, 1, -360, 360],
        [62, 66,      0,     0.218, 0.0578, 9900, 0, 0, 0, 0, 1, -360, 360],
        [62, 67,      0,     0.117, 0.031, 9900, 0, 0, 0, 0, 1, -360, 360],
        [65, 66,      0,0.037, 0, 9900, 0, 0, 0.935, 0, 1, -360, 360],
        [66, 67,      0,     0.1015, 0.02682, 9900, 0, 0, 0, 0, 1, -360, 360],
        [65, 68,      0,      0.016, 0.638, 9900, 0, 0, 0, 0, 1, -360, 360],
        [47, 69,      0,     0.2778, 0.07092, 9900, 0, 0, 0, 0, 1, -360, 360],
        [49, 69,      0,     0.324, 0.0828, 9900, 0, 0, 0, 0, 1, -360, 360],
        [68, 69,      0,0.037, 0, 9900, 0, 0, 0.935, 0, 1, -360, 360],
        [69, 70,      0,   0.127, 0.122, 9900, 0, 0, 0, 0, 1, -360, 360],
        [24, 70,      0,      0.4115, 0.10198, 9900, 0, 0, 0, 0, 1, -360, 360],
        [70, 71,      0,      0.0355, 0.00878, 9900, 0, 0, 0, 0, 1, -360, 360],
        [24, 72,      0,     0.196, 0.0488, 9900, 0, 0, 0, 0, 1, -360, 360],
        [71, 72,      0,     0.18, 0.04444, 9900, 0, 0, 0, 0, 1, -360, 360],
        [71, 73,      0,      0.0454, 0.01178, 9900, 0, 0, 0, 0, 1, -360, 360],
        [70, 74,      0,     0.1323, 0.03368, 9900, 0, 0, 0, 0, 1, -360, 360],
        [70, 75,      0,     0.141, 0.036, 9900, 0, 0, 0, 0, 1, -360, 360],
        [69, 75,      0,     0.122, 0.124, 9900, 0, 0, 0, 0, 1, -360, 360],
        [74, 75,      0,     0.0406, 0.01034, 9900, 0, 0, 0, 0, 1, -360, 360],
        [76, 77,      0,     0.148, 0.0368, 9900, 0, 0, 0, 0, 1, -360, 360],
        [69, 77,      0,     0.101, 0.1038, 9900, 0, 0, 0, 0, 1, -360, 360],
        [75, 77,      0,     0.1999, 0.04978, 9900, 0, 0, 0, 0, 1, -360, 360],
        [77, 78,      0,      0.0124, 0.01264, 9900, 0, 0, 0, 0, 1, -360, 360],
        [78, 79,      0,      0.0244, 0.00648, 9900, 0, 0, 0, 0, 1, -360, 360],
        [77, 80,      0,    0.0485, 0.0472, 9900, 0, 0, 0, 0, 1, -360, 360],
        [77, 80,      0,     0.105, 0.0228, 9900, 0, 0, 0, 0, 1, -360, 360],
        [79, 80,      0,     0.0704, 0.0187, 9900, 0, 0, 0, 0, 1, -360, 360],
        [68, 81,      0,      0.0202, 0.808, 9900, 0, 0, 0, 0, 1, -360, 360],
        [81, 80,      0,0.037, 0, 9900, 0, 0, 0.935, 0, 1, -360, 360],
        [77, 82,      0,     0.0853, 0.08174, 9900, 0, 0, 0, 0, 1, -360, 360],
        [82, 83,      0,     0.03665, 0.03796, 9900, 0, 0, 0, 0, 1, -360, 360],
        [83, 84,      0,     0.132, 0.0258, 9900, 0, 0, 0, 0, 1, -360, 360],
        [83, 85,      0,    0.148, 0.0348, 9900, 0, 0, 0, 0, 1, -360, 360],
        [84, 85,      0,     0.0641, 0.01234, 9900, 0, 0, 0, 0, 1, -360, 360],
        [85, 86,      0,    0.123, 0.0276, 9900, 0, 0, 0, 0, 1, -360, 360],
        [86, 87,      0,      0.2074, 0.0445, 9900, 0, 0, 0, 0, 1, -360, 360],
        [85, 88,      0,   0.102, 0.0276, 9900, 0, 0, 0, 0, 1, -360, 360],
        [85, 89,      0,     0.173, 0.047, 9900, 0, 0, 0, 0, 1, -360, 360],
        [88, 89,      0,     0.0712, 0.01934, 9900, 0, 0, 0, 0, 1, -360, 360],
        [89, 90,      0,     0.188, 0.0528, 9900, 0, 0, 0, 0, 1, -360, 360],
        [89, 90,      0,     0.0997, 0.106, 9900, 0, 0, 0, 0, 1, -360, 360],
        [90, 91,      0,     0.0836, 0.0214, 9900, 0, 0, 0, 0, 1, -360, 360],
        [89, 92,      0,     0.0505, 0.0548, 9900, 0, 0, 0, 0, 1, -360, 360],
        [89, 92,      0,     0.1581, 0.0414, 9900, 0, 0, 0, 0, 1, -360, 360],
        [91, 92,      0,     0.1272, 0.03268, 9900, 0, 0, 0, 0, 1, -360, 360],
        [92, 93,      0,     0.0848, 0.0218, 9900, 0, 0, 0, 0, 1, -360, 360],
        [92, 94,      0,     0.158, 0.0406, 9900, 0, 0, 0, 0, 1, -360, 360],
        [93, 94,      0,     0.0732, 0.01876, 9900, 0, 0, 0, 0, 1, -360, 360],
        [94, 95,      0,     0.0434, 0.0111, 9900, 0, 0, 0, 0, 1, -360, 360],
        [80, 96,      0,     0.182, 0.0494, 9900, 0, 0, 0, 0, 1, -360, 360],
        [82, 96,      0,     0.053, 0.0544, 9900, 0, 0, 0, 0, 1, -360, 360],
        [94, 96,      0,     0.0869, 0.023, 9900, 0, 0, 0, 0, 1, -360, 360],
        [80, 97,      0,     0.0934, 0.0254, 9900, 0, 0, 0, 0, 1, -360, 360],
        [80, 98,      0,     0.108, 0.0286, 9900, 0, 0, 0, 0, 1, -360, 360],
        [80, 99,      0,     0.206, 0.0546, 9900, 0, 0, 0, 0, 1, -360, 360],
        [92, 100,     0,      0.295, 0.0472, 9900, 0, 0, 0, 0, 1, -360, 360],
        [94, 100,     0,      0.058, 0.0604, 9900, 0, 0, 0, 0, 1, -360, 360],
        [95, 96,      0,     0.0547, 0.01474, 9900, 0, 0, 0, 0, 1, -360, 360],
        [96, 97,      0,     0.0885, 0.024, 9900, 0, 0, 0, 0, 1, -360, 360],
        [98, 100,     0,      0.179, 0.0476, 9900, 0, 0, 0, 0, 1, -360, 360],
        [99, 100,     0,     0.0813, 0.0216, 9900, 0, 0, 0, 0, 1, -360, 360],
        [100, 101,    0,       0.1262, 0.0328, 9900, 0, 0, 0, 0, 1, -360, 360],
        [92, 102,     0,      0.0559, 0.01464, 9900, 0, 0, 0, 0, 1, -360, 360],
        [101, 102,    0,       0.112, 0.0294, 9900, 0, 0, 0, 0, 1, -360, 360],
        [100, 103,    0,      0.0525, 0.0536, 9900, 0, 0, 0, 0, 1, -360, 360],
        [100, 104,    0,       0.204, 0.0541, 9900, 0, 0, 0, 0, 1, -360, 360],
        [103, 104,    0,       0.1584, 0.0407, 9900, 0, 0, 0, 0, 1, -360, 360],
        [103, 105,    0,       0.1625, 0.0408, 9900, 0, 0, 0, 0, 1, -360, 360],
        [100, 106,    0,       0.229, 0.062, 9900, 0, 0, 0, 0, 1, -360, 360],
        [104, 105,    0, 0.0378, 0.00986, 9900, 0, 0, 0, 0, 1, -360, 360],
        [105, 106,    0,      0.0547, 0.01434, 9900, 0, 0, 0, 0, 1, -360, 360],
        [105, 107,    0,      0.183, 0.0472, 9900, 0, 0, 0, 0, 1, -360, 360],
        [105, 108,    0,       0.0703, 0.01844, 9900, 0, 0, 0, 0, 1, -360, 360],
        [106, 107,    0,      0.183, 0.0472, 9900, 0, 0, 0, 0, 1, -360, 360],
        [108, 109,    0,       0.0288, 0.0076, 9900, 0, 0, 0, 0, 1, -360, 360],
        [103, 110,    0, 0.1813, 0.0461, 9900, 0, 0, 0, 0, 1, -360, 360],
        [109, 110,    0,       0.0762, 0.0202, 9900, 0, 0, 0, 0, 1, -360, 360],
        [110, 111,    0,      0.0755, 0.02, 9900, 0, 0, 0, 0, 1, -360, 360],
        [110, 112,    0,       0.064, 0.062, 9900, 0, 0, 0, 0, 1, -360, 360],
        [17, 113,     0,       0.0301, 0.00768, 9900, 0, 0, 0, 0, 1, -360, 360],
        [32, 113,     0,      0.203, 0.0518, 9900, 0, 0, 0, 0, 1, -360, 360],
        [32, 114,     0,      0.0612, 0.01628, 9900, 0, 0, 0, 0, 1, -360, 360],
        [27, 115,     0,      0.0741, 0.01972, 9900, 0, 0, 0, 0, 1, -360, 360],
        [114, 115,    0,       0.0104, 0.00276, 9900, 0, 0, 0, 0, 1, -360, 360],
        [68, 116,     0,       0.00405, 0.164, 9900, 0, 0, 0, 0, 1, -360, 360],
        [12, 117,     0,      0.14, 0.0358, 9900, 0, 0, 0, 0, 1, -360, 360],
        [75, 118,     0,      0.0481, 0.01198, 9900, 0, 0, 0, 0, 1, -360, 360],
        [76, 118,     0,      0.0544, 0.01356, 9900, 0, 0, 0, 0, 1, -360, 360]
    ])

    ppc["gencontrol"] = array([
        [ 1          , 3          , 0.015916   ,  0.015916   , 0.159155   ,  0.159155   , - 3.0       ,  3.0        ],
        [ 4          , 3          , 0.000318   ,  0.000318   , 0.003183   ,  0.31831    , - 3.0       ,  3.0        ],
        [ 6          , 3          , 0.015916   ,  0.015916   , 0.003183   ,  0.31831    , - 3.0       ,  3.0        ],
        [ 8          , 3          , 0.000318   ,  0.031831   , 0.159155   ,  0.159155   , - 3.0       ,  3.0        ],
        [ 10         , 3          , 0.001751   ,  0.17507    , 0.017507   ,  1.750704   , - 16.5      ,  16.5       ],
        [ 12         , 3          , 0.029444   ,  0.029444   , 0.294436   ,  0.294436   , - 5.55      ,  5.55       ],
        [ 15         , 3          , 0.000318   ,  0.000318   , 0.003183   ,  0.31831    , - 3.0       ,  3.0        ],
        [ 18         , 3          , 0.015916   ,  0.015916   , 0.003183   ,  0.31831    , - 3.0       ,  3.0        ],
        [ 19         , 3          , 0.000318   ,  0.031831   , 0.159155   ,  0.159155   , - 3.0       ,  3.0        ],
        [ 24         , 3          , 0.000318   ,  0.031831   , 0.003183   ,  0.31831    , - 3.0       ,  3.0        ],
        [ 25         , 3          , 0.05093    ,  0.05093    , 0.509296   ,  0.509296   , - 9.6       ,  9.6        ],
        [ 26         , 3          , 0.001318   ,  0.001318   , 0.013178   ,  1.317803   , - 12.42     ,  12.42      ],
        [ 27         , 3          , 0.015916   ,  0.015916   , 0.003183   ,  0.31831    , - 3.0       ,  3.0        ],
        [ 31         , 3          , 0.000341   ,  0.034059   , 0.170296   ,  0.170296   , - 3.21      ,  3.21       ],
        [ 32         , 3          , 0.000318   ,  0.031831   , 0.003183   ,  0.31831    , - 3.0       ,  3.0        ],
        [ 34         , 3          , 0.015916   ,  0.015916   , 0.159155   ,  0.159155   , - 3.0       ,  3.0        ],
        [ 36         , 3          , 0.000318   ,  0.000318   , 0.003183   ,  0.31831    , - 3.0       ,  3.0        ],
        [ 40         , 3          , 0.015916   ,  0.015916   , 0.003183   ,  0.31831    , - 3.0       ,  3.0        ],
        [ 42         , 3          , 0.000318   ,  0.031831   , 0.159155   ,  0.159155   , - 3.0       ,  3.0        ],
        [ 46         , 3          , 0.000379   ,  0.037879   , 0.003788   ,  0.378789   , - 3.57      ,  3.57       ],
        [ 49         , 3          , 0.048383   ,  0.048383   , 0.483831   ,  0.483831   , - 9.12      ,  9.12       ],
        [ 54         , 3          , 0.000471   ,  0.000471   , 0.004711   ,  0.471099   , - 4.44      ,  4.44       ],
        [ 55         , 3          , 0.015916   ,  0.015916   , 0.003183   ,  0.31831    , - 3.0       ,  3.0        ],
        [ 56         , 3          , 0.000318   ,  0.031831   , 0.159155   ,  0.159155   , - 3.0       ,  3.0        ],
        [ 59         , 3          , 0.000812   ,  0.081169   , 0.008117   ,  0.81169    , - 7.65      ,  7.65       ],
        [ 61         , 3          , 0.04138    ,  0.04138    , 0.413803   ,  0.413803   , - 7.8       ,  7.8        ],
        [ 62         , 3          , 0.000318   ,  0.000318   , 0.003183   ,  0.31831    , - 3.0       ,  3.0        ],
        [ 65         , 3          , 0.078145   ,  0.078145   , 0.015629   ,  1.562902   , - 14.73     ,  14.73      ],
        [ 66         , 3          , 0.001566   ,  0.156608   , 0.783042   ,  0.783042   , - 14.76     ,  14.76      ],
        [ 69         , 3          , 0.002563   ,  0.256303   , 0.02563    ,  2.563031   , - 24.156    ,  24.156     ],
        [ 70         , 3          , 0.015916   ,  0.015916   , 0.159155   ,  0.159155   , - 3.0       ,  3.0        ],
        [ 72         , 3          , 0.000318   ,  0.000318   , 0.003183   ,  0.31831    , - 3.0       ,  3.0        ],
        [ 73         , 3          , 0.015916   ,  0.015916   , 0.003183   ,  0.31831    , - 3.0       ,  3.0        ],
        [ 74         , 3          , 0.000318   ,  0.031831   , 0.159155   ,  0.159155   , - 3.0       ,  3.0        ],
        [ 76         , 3          , 0.000318   ,  0.031831   , 0.003183   ,  0.31831    , - 3.0       ,  3.0        ],
        [ 77         , 3          , 0.015916   ,  0.015916   , 0.159155   ,  0.159155   , - 3.0       ,  3.0        ],
        [ 80         , 3          , 0.001837   ,  0.001837   , 0.018366   ,  1.836648   , - 17.31     ,  17.31      ],
        [ 85         , 3          , 0.015916   ,  0.015916   , 0.003183   ,  0.31831    , - 3.0       ,  3.0        ],
        [ 87         , 3          , 0.000331   ,  0.033104   , 0.165521   ,  0.165521   , - 3.12      ,  3.12       ],
        [ 89         , 3          , 0.00225    ,  0.225045   , 0.022505   ,  2.250451   , - 21.21     ,  21.21      ],
        [ 90         , 3          , 0.015916   ,  0.015916   , 0.159155   ,  0.159155   , - 3.0       ,  3.0        ],
        [ 91         , 3          , 0.000318   ,  0.000318   , 0.003183   ,  0.31831    , - 3.0       ,  3.0        ],
        [ 92         , 3          , 0.015916   ,  0.015916   , 0.003183   ,  0.31831    , - 3.0       ,  3.0        ],
        [ 99         , 3          , 0.000318   ,  0.031831   , 0.159155   ,  0.159155   , - 3.0       ,  3.0        ],
        [ 100        , 3          , 0.00112    ,  0.112045   , 0.011205   ,  1.120451   , - 10.56     ,  10.56      ],
        [ 103        , 3          , 0.022282   ,  0.022282   , 0.222817   ,  0.222817   , - 4.2       ,  4.2        ],
        [ 104        , 3          , 0.000318   ,  0.000318   , 0.003183   ,  0.31831    , - 3.0       ,  3.0        ],
        [ 105        , 3          , 0.015916   ,  0.015916   , 0.003183   ,  0.31831    , - 3.0       ,  3.0        ],
        [ 107        , 3          , 0.000318   ,  0.031831   , 0.159155   ,  0.159155   , - 3.0       ,  3.0        ],
        [ 110        , 3          , 0.000318   ,  0.031831   , 0.003183   ,  0.31831    , - 3.0       ,  3.0        ],
        [ 111        , 3          , 0.021645   ,  0.021645   , 0.21645    ,  0.21645    , - 4.08      ,  4.08       ],
        [ 112        , 3          , 0.000318   ,  0.000318   , 0.003183   ,  0.31831    , - 3.0       ,  3.0        ],
        [ 113        , 3          , 0.015916   ,  0.015916   , 0.003183   ,  0.31831    , - 3.0       ,  3.0        ],
        [ 116        , 3          , 0.000318   ,  0.031831   , 0.159155   ,  0.159155   , - 3.0       ,  3.0        ]
    ])


    ###----- disturbances data -----###
    #1 - power-step: num, buses, start time, amplitude(\times p_0)
    #2 - power ramp: num, buses, start time, duration time, height (\times p_0)
    #3 - power fluctuation: num, buses, start time, time interval, date num
    #4 - 3psc: num, branch-f_bus,  branch-t_bus, nearest bus, short-circuit conductance (p.u.), start time, clearing time(\Delta t with second)
    #9: uniform distribution date on [-0.2, 0.2]

    ppc["disturbance"] = {
    1: array([
        [1,     25,      0,      -0.5, 0.15],
        [2,     11,      0,      -0.5, 0.15]
    ]),
    2: array([
        [1,    49,      0,      5,      -0.5, 0.15],
        [2,    54,      0,      5,      -0.5, 0.15]
    ]),
    3: array([
        [1,    89,      0,      0.5,    9, 0.6],
        [2,    90,      0,      0.5,      9, 0.6]
    ]),
    4: array([
        [1,    108,    109,      999,      999,    0,      0.1, 0.1],
        [2,    43,     44,       999,      999,    0,      0.1, 0.1]
    ]),
    9: array([
        -0.077752022,-0.049592684,-0.094386402,-0.027777255,0.106175442,0.07760974,0.010639525,0.145379902,-0.113145199,-0.173299214,0.027856593,-0.153232617,-0.123096728,-0.077041254,-0.152101278,-0.059589093,-0.06009897,-0.121105119,-0.017018885,0.072363903,0.170954442,-0.034889518,-0.060918945,0.037836957,0.170201299,-0.1546673,0.1972234,-0.071938968,-0.107488659,-0.088976472,-0.068018895,-0.06587186,-0.003419552,0.152372651,0.112508103,0.142640044,-0.049963844,-0.149540361,0.139890352,0.13228229,-0.075472623,0.055259011,-0.017222513,-0.13241881,0.012423058,-0.000117756,0.191749308,-0.080003032,-0.166717849,-0.149633579,-0.166748818,-0.179088528,0.199144351,-0.101607438,-0.105415065,0.149580196,-0.005620803,0.089868514,0.022076414,-0.094829629,0.111238813,0.133720447,0.121662029,0.141913883,-0.111726178,-0.14110605,0.032269891,0.120886645,0.009050625,-0.011489962,0.016302734,0.12436742,0.11313339,-0.092537767,0.147695992,0.174444751,0.15505781,-0.193334631,0.159925609,-0.099949322,0.099644356,0.079428698,-0.048152161,0.06028194,0.126261189,0.15150098,-0.147034132,-0.058805963,-0.094758118,0.051548502,0.020517378,-0.195080454,0.092211274,0.089238641,-0.091390137,-0.088318354,0.030346984,0.13823391,-0.160389818,-0.160731705
    ])
    }

    # parameters of discretization
    # time_ele_d1 - number of time elements for disturbance 1;
    # time_ele_d2_d - number of time element during the disturbance for disturbance 2;
    # t_f - assume t_0 = 0 for all disturbances
    # order - order of collocation
    ppc["param_disc"] = {
    'time_ele':{1: 20, 2: 20, 3: 20, 4: 20},
    'time_ele_d':{2: 4, 4: 4},
    'order':{1: 3, 2: 3, 3: 3, 4: 3},
    't_f':{1: 30, 2: 30, 3: 30, 4: 30},
    'colloc_point_radau': {1:(0, 1.0),2:(0, 0.333333, 1.0),3:(0, 0.155051, 0.644949, 1.0),4:(0, 0.088588, 0.409467, 0.787659, 1.0),5:(0, 0.057104, 0.276843, 0.583590, 0.860240, 1.0)}
    }

    ppc["freq_band"] = {
    1:{(0, 15):(49.5, 50.5), (15, 300):(49.85, 50.15)},
    2:{(0, 15):(49.5, 50.5), (15, 300):(49.85, 50.15)},
    3:{(0, 300):(49.85, 50.15)},
    4:{(0, 15):(49, 51), (15, 60):(49.5, 50.5), (60, 300):(49.85, 50.15)}
    }



    return ppc
